C:/VTKBRANDY/data/peptide.mol
 BANBRANDY TO MOL powered by BANSHEE&GT&FN
 
328333  0  0  0  0  0  0  0  0  1 V2000
   -6.3754   -3.2486   20.1559 N   0  3  0  0  0  0  0  0  0  0  0  0
   -5.9926   -4.6284   19.7102 C   0  0  0  0  0  0  0  0  0  0  0  0
   -5.6887   -4.6451   18.2307 C   0  0  0  0  0  0  0  0  0  0  0  0
   -4.7669   -5.2900   17.7571 O   0  0  0  0  0  0  0  0  0  0  0  0
   -7.1635   -5.5918   19.9567 C   0  0  0  0  0  0  0  0  0  0  0  0
   -5.6039   -2.6101   19.9684 H   0  0  0  0  0  0  0  0  0  0  0  0
   -6.5477   -3.2527   21.1626 H   0  0  0  0  0  0  0  0  0  0  0  0
   -7.1870   -2.9330   19.6244 H   0  0  0  0  0  0  0  0  0  0  0  0
   -5.0777   -4.9527   20.2501 H   0  0  0  0  0  0  0  0  0  0  0  0
   -6.8761   -6.6111   19.6155 H   0  0  0  0  0  0  0  0  0  0  0  0
   -8.0519   -5.2541   19.3823 H   0  0  0  0  0  0  0  0  0  0  0  0
   -7.4037   -5.6118   21.0453 H   0  0  0  0  0  0  0  0  0  0  0  0
   -6.5342   -3.8856   17.5210 N   0  0  0  0  0  0  0  0  0  0  0  0
   -6.4052   -3.7704   16.0720 C   0  0  0  0  0  0  0  0  0  0  0  0
   -5.0596   -3.2040   15.6704 C   0  0  0  0  0  0  0  0  0  0  0  0
   -4.4323   -3.6196   14.7177 O   0  0  0  0  0  0  0  0  0  0  0  0
   -7.2639   -3.3901   18.0251 H   0  0  0  0  0  0  0  0  0  0  0  0
   -6.4945   -4.7750   15.6076 H   0  0  0  0  0  0  0  0  0  0  0  0
   -7.1911   -3.0906   15.6817 H   0  0  0  0  0  0  0  0  0  0  0  0
   -4.6581   -2.2185   16.4839 N   0  0  0  0  0  0  0  0  0  0  0  0
   -3.3819   -1.5408   16.2618 C   0  0  0  0  0  0  0  0  0  0  0  0
   -2.2105   -2.5081   16.3262 C   0  0  0  0  0  0  0  0  0  0  0  0
   -1.2753   -2.4367   15.5848 O   0  0  0  0  0  0  0  0  0  0  0  0
   -3.1774   -0.4707   17.3467 C   0  0  0  0  0  0  0  0  0  0  0  0
   -1.8364    0.2506   17.1189 C   0  0  0  0  0  0  0  0  0  0  0  0
   -4.3288    0.5600   17.2843 C   0  0  0  0  0  0  0  0  0  0  0  0
   -5.2712   -1.9507   17.2539 H   0  0  0  0  0  0  0  0  0  0  0  0
   -3.3754   -1.0792   15.2542 H   0  0  0  0  0  0  0  0  0  0  0  0
   -3.1758   -0.9569   18.3494 H   0  0  0  0  0  0  0  0  0  0  0  0
   -1.7019    1.0179   17.9032 H   0  0  0  0  0  0  0  0  0  0  0  0
   -1.8398    0.7317   16.1161 H   0  0  0  0  0  0  0  0  0  0  0  0
   -1.0176   -0.4903   17.1772 H   0  0  0  0  0  0  0  0  0  0  0  0
   -4.1750    1.3269   18.0712 H   0  0  0  0  0  0  0  0  0  0  0  0
   -5.2959    0.0458   17.4555 H   0  0  0  0  0  0  0  0  0  0  0  0
   -4.3277    1.0332   16.2866 H   0  0  0  0  0  0  0  0  0  0  0  0
   -2.3670   -3.4029   17.3218 N   0  0  0  0  0  0  0  0  0  0  0  0
   -1.3484   -4.4223   17.5559 C   0  0  0  0  0  0  0  0  0  0  0  0
   -1.1447   -5.2972   16.3435 C   0  0  0  0  0  0  0  0  0  0  0  0
   -0.0436   -5.6733   15.9820 O   0  0  0  0  0  0  0  0  0  0  0  0
   -1.7817   -5.3289   18.7167 C   0  0  0  0  0  0  0  0  0  0  0  0
   -0.7133   -6.4018   18.9709 C   0  0  0  0  0  0  0  0  0  0  0  0
   -1.1552   -7.3080   20.1367 C   0  0  0  0  0  0  0  0  0  0  0  0
   -0.5363   -7.2543   17.7004 C   0  0  0  0  0  0  0  0  0  0  0  0
   -3.2068   -3.3593   17.8949 H   0  0  0  0  0  0  0  0  0  0  0  0
   -0.3867   -3.9320   17.7863 H   0  0  0  0  0  0  0  0  0  0  0  0
   -2.7466   -5.8201   18.4662 H   0  0  0  0  0  0  0  0  0  0  0  0
   -1.9116   -4.7128   19.6399 H   0  0  0  0  0  0  0  0  0  0  0  0
    0.2442   -5.9102   19.2273 H   0  0  0  0  0  0  0  0  0  0  0  0
   -0.3720   -8.0815   20.3130 H   0  0  0  0  0  0  0  0  0  0  0  0
   -2.1061   -7.8024   19.8743 H   0  0  0  0  0  0  0  0  0  0  0  0
   -1.2733   -6.6903   21.0394 H   0  0  0  0  0  0  0  0  0  0  0  0
    0.2370   -8.0287   17.8808 H   0  0  0  0  0  0  0  0  0  0  0  0
   -0.2176   -6.6024   16.8610 H   0  0  0  0  0  0  0  0  0  0  0  0
   -1.4932   -7.7467   17.4503 H   0  0  0  0  0  0  0  0  0  0  0  0
   -2.2957   -5.6013   15.7287 N   0  0  0  0  0  0  0  0  0  0  0  0
   -2.3109   -6.4401   14.5329 C   0  0  0  0  0  0  0  0  0  0  0  0
   -1.5073   -5.8244   13.4124 C   0  0  0  0  0  0  0  0  0  0  0  0
   -0.7928   -6.4860   12.6778 O   0  0  0  0  0  0  0  0  0  0  0  0
   -3.7639   -6.6488   14.0693 C   0  0  0  0  0  0  0  0  0  0  0  0
   -3.7792   -7.5330   12.8089 C   0  0  0  0  0  0  0  0  0  0  0  0
   -4.4016   -5.2843   13.7478 C   0  0  0  0  0  0  0  0  0  0  0  0
   -5.2331   -7.7416   12.3442 C   0  0  0  0  0  0  0  0  0  0  0  0
   -3.1614   -5.2304   16.1203 H   0  0  0  0  0  0  0  0  0  0  0  0
   -1.8657   -7.4291   14.7690 H   0  0  0  0  0  0  0  0  0  0  0  0
   -4.3412   -7.1469   14.8765 H   0  0  0  0  0  0  0  0  0  0  0  0
   -3.3222   -8.5170   13.0430 H   0  0  0  0  0  0  0  0  0  0  0  0
   -3.2032   -7.0342   12.0018 H   0  0  0  0  0  0  0  0  0  0  0  0
   -4.3945   -4.6391   14.6515 H   0  0  0  0  0  0  0  0  0  0  0  0
   -5.4495   -5.4248   13.4119 H   0  0  0  0  0  0  0  0  0  0  0  0
   -3.8302   -4.7805   12.9403 H   0  0  0  0  0  0  0  0  0  0  0  0
   -5.2516   -8.3774   11.4342 H   0  0  0  0  0  0  0  0  0  0  0  0
   -5.7008   -6.7617   12.1104 H   0  0  0  0  0  0  0  0  0  0  0  0
   -5.8191   -8.2364   13.1459 H   0  0  0  0  0  0  0  0  0  0  0  0
   -1.6712   -4.4972   13.3270 N   0  0  0  0  0  0  0  0  0  0  0  0
   -0.9776   -3.7178   12.3049 C   0  0  0  0  0  0  0  0  0  0  0  0
    0.5186   -3.8430   12.4336 C   0  0  0  0  0  0  0  0  0  0  0  0
    1.2518   -3.9419   11.4648 O   0  0  0  0  0  0  0  0  0  0  0  0
   -1.3910   -2.2473   12.5027 C   0  0  0  0  0  0  0  0  0  0  0  0
   -2.3644   -2.2097   13.6962 C   0  0  0  0  0  0  0  0  0  0  0  0
   -2.5206   -3.6579   14.1962 C   0  0  0  0  0  0  0  0  0  0  0  0
   -1.2653   -4.0871   11.2989 H   0  0  0  0  0  0  0  0  0  0  0  0
   -1.9101   -1.8851   11.5910 H   0  0  0  0  0  0  0  0  0  0  0  0
   -0.4980   -1.6421   12.7392 H   0  0  0  0  0  0  0  0  0  0  0  0
   -3.3494   -1.8293   13.3559 H   0  0  0  0  0  0  0  0  0  0  0  0
   -1.9315   -1.5852   14.5052 H   0  0  0  0  0  0  0  0  0  0  0  0
   -3.5800   -3.9725   14.0911 H   0  0  0  0  0  0  0  0  0  0  0  0
   -2.1584   -3.7278   15.2422 H   0  0  0  0  0  0  0  0  0  0  0  0
    0.9304   -3.8320   13.7087 N   0  0  0  0  0  0  0  0  0  0  0  0
    2.3503   -3.9405   14.0424 C   0  0  0  0  0  0  0  0  0  0  0  0
    2.9382   -5.2332   13.5293 C   0  0  0  0  0  0  0  0  0  0  0  0
    4.0551   -5.2921   13.0377 O   0  0  0  0  0  0  0  0  0  0  0  0
    2.5210   -3.9182   15.5724 C   0  0  0  0  0  0  0  0  0  0  0  0
    3.8988   -4.0266   15.8462 O   0  0  0  0  0  0  0  0  0  0  0  0
    0.2253   -3.7440   14.4396 H   0  0  0  0  0  0  0  0  0  0  0  0
    2.9050   -3.1012   13.5753 H   0  0  0  0  0  0  0  0  0  0  0  0
    2.0346   -4.8163   16.0109 H   0  0  0  0  0  0  0  0  0  0  0  0
    2.1929   -2.9330   15.9650 H   0  0  0  0  0  0  0  0  0  0  0  0
    3.9915   -4.0112   16.7806 H   0  0  0  0  0  0  0  0  0  0  0  0
    2.1147   -6.2760   13.6795 N   0  0  0  0  0  0  0  0  0  0  0  0
    2.5018   -7.6149   13.2442 C   0  0  0  0  0  0  0  0  0  0  0  0
    2.7990   -7.6540   11.7643 C   0  0  0  0  0  0  0  0  0  0  0  0
    3.7292   -8.2937   11.2982 O   0  0  0  0  0  0  0  0  0  0  0  0
    1.3816   -8.6112   13.5736 C   0  0  0  0  0  0  0  0  0  0  0  0
    1.7992   -9.8845   13.1368 O   0  0  0  0  0  0  0  0  0  0  0  0
    0.1181   -8.2372   12.7761 C   0  0  0  0  0  0  0  0  0  0  0  0
    1.2009   -6.1079   14.1055 H   0  0  0  0  0  0  0  0  0  0  0  0
    3.4229   -7.9243   13.7839 H   0  0  0  0  0  0  0  0  0  0  0  0
    1.2537   -8.6760   14.6737 H   0  0  0  0  0  0  0  0  0  0  0  0
    1.1018  -10.4867   13.3404 H   0  0  0  0  0  0  0  0  0  0  0  0
   -0.7004   -8.9522   13.0061 H   0  0  0  0  0  0  0  0  0  0  0  0
    0.3315   -8.2709   11.6878 H   0  0  0  0  0  0  0  0  0  0  0  0
   -0.2111   -7.2121   13.0450 H   0  0  0  0  0  0  0  0  0  0  0  0
    1.9373   -6.9202   11.0466 N   0  0  0  0  0  0  0  0  0  0  0  0
    2.0588   -6.8299    9.5941 C   0  0  0  0  0  0  0  0  0  0  0  0
    3.3861   -6.2525    9.1780 C   0  0  0  0  0  0  0  0  0  0  0  0
    4.0183   -6.6770    8.2249 O   0  0  0  0  0  0  0  0  0  0  0  0
    0.9474   -5.9111    9.0439 C   0  0  0  0  0  0  0  0  0  0  0  0
    1.1145   -5.8078    7.2348 S   0  0  0  0  0  0  0  0  0  0  0  0
    1.1967   -6.4251   11.5447 H   0  0  0  0  0  0  0  0  0  0  0  0
    1.9701   -7.8462    9.1513 H   0  0  0  0  0  0  0  0  0  0  0  0
    1.0327   -4.9118    9.5261 H   0  0  0  0  0  0  0  0  0  0  0  0
   -0.0379   -6.2994    9.3540 H   0  0  0  0  0  0  0  0  0  0  0  0
    0.0748   -4.9829    7.0494 H   0  0  0  0  0  0  0  0  0  0  0  0
    3.7819   -5.2411    9.9661 N   0  0  0  0  0  0  0  0  0  0  0  0
    5.0414   -4.5506    9.7265 C   0  0  0  0  0  0  0  0  0  0  0  0
    6.2191   -5.4936    9.8142 C   0  0  0  0  0  0  0  0  0  0  0  0
    7.1710   -5.4312    9.0488 O   0  0  0  0  0  0  0  0  0  0  0  0
    5.2426   -3.4539   10.7925 C   0  0  0  0  0  0  0  0  0  0  0  0
    6.5396   -2.7435   10.5476 C   0  0  0  0  0  0  0  0  0  0  0  0
    6.5735   -1.6237    9.7247 C   0  0  0  0  0  0  0  0  0  0  0  0
    7.7053   -3.2049   11.1418 C   0  0  0  0  0  0  0  0  0  0  0  0
    7.7719   -0.9658    9.4967 C   0  0  0  0  0  0  0  0  0  0  0  0
    8.9117   -2.5453   10.9154 C   0  0  0  0  0  0  0  0  0  0  0  0
    8.9456   -1.4255   10.0925 C   0  0  0  0  0  0  0  0  0  0  0  0
    3.1734   -4.9701   10.7386 H   0  0  0  0  0  0  0  0  0  0  0  0
    5.0388   -4.1055    8.7100 H   0  0  0  0  0  0  0  0  0  0  0  0
    5.2552   -3.9202   11.7994 H   0  0  0  0  0  0  0  0  0  0  0  0
    4.4065   -2.7269   10.7315 H   0  0  0  0  0  0  0  0  0  0  0  0
    5.6491   -1.2582    9.2541 H   0  0  0  0  0  0  0  0  0  0  0  0
    7.6783   -4.0910   11.7927 H   0  0  0  0  0  0  0  0  0  0  0  0
    7.7987   -0.0788    8.8461 H   0  0  0  0  0  0  0  0  0  0  0  0
    9.8349   -2.9101   11.3861 H   0  0  0  0  0  0  0  0  0  0  0  0
    9.8958   -0.9042    9.9123 H   0  0  0  0  0  0  0  0  0  0  0  0
    6.0966   -6.3819   10.8096 N   0  0  0  0  0  0  0  0  0  0  0  0
    7.1307   -7.3816   11.0567 C   0  0  0  0  0  0  0  0  0  0  0  0
    7.3381   -8.2763    9.8583 C   0  0  0  0  0  0  0  0  0  0  0  0
    8.4442   -8.6436    9.4974 O   0  0  0  0  0  0  0  0  0  0  0  0
    6.7138   -8.2710   12.2424 C   0  0  0  0  0  0  0  0  0  0  0  0
    7.7799   -9.2972   12.4979 C   0  0  0  0  0  0  0  0  0  0  0  0
    8.8171   -9.0173   13.3752 C   0  0  0  0  0  0  0  0  0  0  0  0
    7.7229  -10.5291   11.8553 C   0  0  0  0  0  0  0  0  0  0  0  0
    9.8065   -9.9684   13.6116 C   0  0  0  0  0  0  0  0  0  0  0  0
    8.7123  -11.4802   12.0917 C   0  0  0  0  0  0  0  0  0  0  0  0
    9.7495  -11.2003   12.9691 C   0  0  0  0  0  0  0  0  0  0  0  0
   10.7183  -12.1293   13.2001 O   0  0  0  0  0  0  0  0  0  0  0  0
    5.2576   -6.3393   11.3885 H   0  0  0  0  0  0  0  0  0  0  0  0
    8.0966   -6.8713   11.2726 H   0  0  0  0  0  0  0  0  0  0  0  0
    5.7606   -8.7819   12.0021 H   0  0  0  0  0  0  0  0  0  0  0  0
    6.5828   -7.6427   13.1471 H   0  0  0  0  0  0  0  0  0  0  0  0
    8.8590   -8.0436   13.8824 H   0  0  0  0  0  0  0  0  0  0  0  0
    6.8995  -10.7509   11.1597 H   0  0  0  0  0  0  0  0  0  0  0  0
   10.6310   -9.7461   14.3065 H   0  0  0  0  0  0  0  0  0  0  0  0
    8.6635  -12.4550   11.5822 H   0  0  0  0  0  0  0  0  0  0  0  0
   10.5101  -12.9139   12.6681 H   0  0  0  0  0  0  0  0  0  0  0  0
    6.1894   -8.6092    9.2570 N   0  0  0  0  0  0  0  0  0  0  0  0
    6.1754   -9.4701    8.0769 C   0  0  0  0  0  0  0  0  0  0  0  0
    6.9651   -8.8640    6.9405 C   0  0  0  0  0  0  0  0  0  0  0  0
    7.6830   -9.5293    6.2136 O   0  0  0  0  0  0  0  0  0  0  0  0
    4.7252   -9.7077    7.6279 C   0  0  0  0  0  0  0  0  0  0  0  0
    4.7166  -10.5918    6.4166 C   0  0  0  0  0  0  0  0  0  0  0  0
    4.6534  -11.9408    6.4183 N   0  0  0  0  0  0  0  0  0  0  0  0
    4.7611  -10.1792    5.1312 C   0  0  0  0  0  0  0  0  0  0  0  0
    4.6633  -12.3615    5.1351 C   0  0  0  0  0  0  0  0  0  0  0  0
    4.7339  -11.2724    4.3411 N   0  0  0  0  0  0  0  0  0  0  0  0
    5.3199   -8.2423    9.6478 H   0  0  0  0  0  0  0  0  0  0  0  0
    6.6433  -10.4464    8.3301 H   0  0  0  0  0  0  0  0  0  0  0  0
    4.2525   -8.7349    7.3781 H   0  0  0  0  0  0  0  0  0  0  0  0
    4.1650  -10.1979    8.4487 H   0  0  0  0  0  0  0  0  0  0  0  0
    4.6084  -12.5366    7.2451 H   0  0  0  0  0  0  0  0  0  0  0  0
    4.8195   -9.1349    4.7904 H   0  0  0  0  0  0  0  0  0  0  0  0
    4.6299  -13.4068    4.7991 H   0  0  0  0  0  0  0  0  0  0  0  0
    4.7591  -11.2752    3.3213 H   0  0  0  0  0  0  0  0  0  0  0  0
    6.7807   -7.5411    6.8307 N   0  0  0  0  0  0  0  0  0  0  0  0
    7.4603   -6.7707    5.7907 C   0  0  0  0  0  0  0  0  0  0  0  0
    8.9575   -6.8722    5.9109 C   0  0  0  0  0  0  0  0  0  0  0  0
    9.6910   -6.9781    4.9407 O   0  0  0  0  0  0  0  0  0  0  0  0
    7.0299   -5.2944    5.8857 C   0  0  0  0  0  0  0  0  0  0  0  0
    7.7289   -4.5028    4.8173 C   0  0  0  0  0  0  0  0  0  0  0  0
    7.2657   -4.2800    3.5684 C   0  0  0  0  0  0  0  0  0  0  0  0
    8.9252   -3.8890    4.9348 C   0  0  0  0  0  0  0  0  0  0  0  0
    8.1772   -3.5290    2.9147 N   0  0  0  0  0  0  0  0  0  0  0  0
    9.1999   -3.2878    3.7581 C   0  0  0  0  0  0  0  0  0  0  0  0
    9.7952   -3.8015    5.9605 C   0  0  0  0  0  0  0  0  0  0  0  0
   10.3533   -2.5963    3.6092 C   0  0  0  0  0  0  0  0  0  0  0  0
   10.9488   -3.1109    5.8113 C   0  0  0  0  0  0  0  0  0  0  0  0
   11.2242   -2.5086    4.6351 C   0  0  0  0  0  0  0  0  0  0  0  0
    6.1552   -7.0879    7.4964 H   0  0  0  0  0  0  0  0  0  0  0  0
    7.1655   -7.1639    4.7923 H   0  0  0  0  0  0  0  0  0  0  0  0
    7.3132   -4.8929    6.8824 H   0  0  0  0  0  0  0  0  0  0  0  0
    5.9299   -5.2186    5.7456 H   0  0  0  0  0  0  0  0  0  0  0  0
    6.3086   -4.6479    3.1553 H   0  0  0  0  0  0  0  0  0  0  0  0
    8.0956   -3.1919    1.9221 H   0  0  0  0  0  0  0  0  0  0  0  0
    9.5709   -4.2919    6.9191 H   0  0  0  0  0  0  0  0  0  0  0  0
   10.5776   -2.1059    2.6507 H   0  0  0  0  0  0  0  0  0  0  0  0
   11.6569   -3.0394    6.6470 H   0  0  0  0  0  0  0  0  0  0  0  0
   12.1569   -1.9476    4.5119 H   0  0  0  0  0  0  0  0  0  0  0  0
    9.3831   -6.8296    7.1841 N   0  0  0  0  0  0  0  0  0  0  0  0
   10.8017   -6.9129    7.5096 C   0  0  0  0  0  0  0  0  0  0  0  0
   11.4088   -8.2052    7.0184 C   0  0  0  0  0  0  0  0  0  0  0  0
   12.5195   -8.2590    6.5192 O   0  0  0  0  0  0  0  0  0  0  0  0
   10.9840   -6.8588    9.0386 C   0  0  0  0  0  0  0  0  0  0  0  0
   12.4635   -6.9472    9.3314 C   0  0  0  0  0  0  0  0  0  0  0  0
   12.8020   -6.9196   10.5325 O   0  5  0  0  0  0  0  0  0  0  0  0
   13.2293   -7.0436    8.3494 O   0  5  0  0  0  0  0  0  0  0  0  0
    8.6731   -6.7402    7.9170 H   0  0  0  0  0  0  0  0  0  0  0  0
   11.3434   -6.0743    7.0235 H   0  0  0  0  0  0  0  0  0  0  0  0
   10.4907   -7.7409    9.4991 H   0  0  0  0  0  0  0  0  0  0  0  0
   10.6163   -5.8823    9.4177 H   0  0  0  0  0  0  0  0  0  0  0  0
   10.5975   -9.2577    7.1922 N   0  0  0  0  0  0  0  0  0  0  0  0
   11.0030  -10.5989    6.7799 C   0  0  0  0  0  0  0  0  0  0  0  0
   11.2938  -10.6613    5.2994 C   0  0  0  0  0  0  0  0  0  0  0  0
   12.2236  -11.2972    4.8378 O   0  0  0  0  0  0  0  0  0  0  0  0
    9.8724  -11.5967    7.0849 C   0  0  0  0  0  0  0  0  0  0  0  0
   10.3354  -12.9653    6.6454 C   0  0  0  0  0  0  0  0  0  0  0  0
    9.6410  -13.9611    6.7646 O   0  0  0  0  0  0  0  0  0  0  0  0
   11.6373  -12.9933    6.3210 N   0  0  0  0  0  0  0  0  0  0  0  0
    9.6854   -9.0954    7.6208 H   0  0  0  0  0  0  0  0  0  0  0  0
   11.9329  -10.8848    7.3184 H   0  0  0  0  0  0  0  0  0  0  0  0
    8.9797  -11.3306    6.4884 H   0  0  0  0  0  0  0  0  0  0  0  0
    9.6972  -11.6318    8.1802 H   0  0  0  0  0  0  0  0  0  0  0  0
   12.1828  -12.1341    6.3918 H   0  0  0  0  0  0  0  0  0  0  0  0
   11.9964  -13.7826    5.7833 H   0  0  0  0  0  0  0  0  0  0  0  0
   10.4186   -9.9524    4.5731 N   0  0  0  0  0  0  0  0  0  0  0  0
   10.5197   -9.8898    3.1178 C   0  0  0  0  0  0  0  0  0  0  0  0
   11.8433   -9.2998    2.6832 C   0  0  0  0  0  0  0  0  0  0  0  0
   12.4695   -9.7342    1.7322 O   0  0  0  0  0  0  0  0  0  0  0  0
    9.4042   -8.9945    2.5596 C   0  0  0  0  0  0  0  0  0  0  0  0
    9.5127   -8.9277    1.0243 C   0  0  0  0  0  0  0  0  0  0  0  0
    8.4006   -8.0440    0.5180 C   0  0  0  0  0  0  0  0  0  0  0  0
    8.3261   -7.8693   -0.7138 O   0  5  0  0  0  0  0  0  0  0  0  0
    7.6322   -7.5529    1.3740 O   0  5  0  0  0  0  0  0  0  0  0  0
    9.6675   -9.4609    5.0665 H   0  0  0  0  0  0  0  0  0  0  0  0
   10.4497  -10.9141    2.6959 H   0  0  0  0  0  0  0  0  0  0  0  0
    9.5007   -7.9726    2.9818 H   0  0  0  0  0  0  0  0  0  0  0  0
    8.4176   -9.4219    2.8384 H   0  0  0  0  0  0  0  0  0  0  0  0
    9.3613   -9.9430    0.5985 H   0  0  0  0  0  0  0  0  0  0  0  0
   10.4760   -8.4547    0.7460 H   0  0  0  0  0  0  0  0  0  0  0  0
   12.2212   -8.2707    3.4511 N   0  0  0  0  0  0  0  0  0  0  0  0
   13.4794   -7.5633    3.1893 C   0  0  0  0  0  0  0  0  0  0  0  0
   14.6667   -8.4890    3.2855 C   0  0  0  0  0  0  0  0  0  0  0  0
   15.6115   -8.4283    2.5121 O   0  0  0  0  0  0  0  0  0  0  0  0
   13.6634   -6.4463    4.2315 C   0  0  0  0  0  0  0  0  0  0  0  0
   14.9882   -5.7015    3.9576 C   0  0  0  0  0  0  0  0  0  0  0  0
   15.1257   -4.6197    4.9984 C   0  0  0  0  0  0  0  0  0  0  0  0
   16.0849   -3.8634    5.0300 O   0  0  0  0  0  0  0  0  0  0  0  0
   14.2186   -4.7209    5.9792 N   0  0  0  0  0  0  0  0  0  0  0  0
   11.6200   -7.9918    4.2196 H   0  0  0  0  0  0  0  0  0  0  0  0
   13.4585   -7.1399    2.1638 H   0  0  0  0  0  0  0  0  0  0  0  0
   13.6946   -6.8931    5.2478 H   0  0  0  0  0  0  0  0  0  0  0  0
   12.8200   -5.7320    4.1629 H   0  0  0  0  0  0  0  0  0  0  0  0
   14.9330   -5.2135    2.9617 H   0  0  0  0  0  0  0  0  0  0  0  0
   15.8370   -6.4046    4.0769 H   0  0  0  0  0  0  0  0  0  0  0  0
   13.5396   -5.4800    5.9478 H   0  0  0  0  0  0  0  0  0  0  0  0
   14.0666   -3.9192    6.5925 H   0  0  0  0  0  0  0  0  0  0  0  0
   14.5634   -9.3611    4.2977 N   0  0  0  0  0  0  0  0  0  0  0  0
   15.6195  -10.3393    4.5575 C   0  0  0  0  0  0  0  0  0  0  0  0
   15.8241  -11.2547    3.3738 C   0  0  0  0  0  0  0  0  0  0  0  0
   16.9302  -11.6098    3.0118 O   0  0  0  0  0  0  0  0  0  0  0  0
   15.2194  -11.2126    5.7617 C   0  0  0  0  0  0  0  0  0  0  0  0
   16.3307  -12.2453    6.0356 C   0  0  0  0  0  0  0  0  0  0  0  0
   15.8444  -13.2704    7.4602 S   0  0  0  0  0  0  0  0  0  0  0  0
   17.3287  -14.3156    7.4670 C   0  0  0  0  0  0  0  0  0  0  0  0
   13.7279   -9.3194    4.8821 H   0  0  0  0  0  0  0  0  0  0  0  0
   16.5732   -9.8127    4.7563 H   0  0  0  0  0  0  0  0  0  0  0  0
   14.2703  -11.7415    5.5370 H   0  0  0  0  0  0  0  0  0  0  0  0
   15.0821  -10.5706    6.6556 H   0  0  0  0  0  0  0  0  0  0  0  0
   17.2836  -11.7154    6.2082 H   0  0  0  0  0  0  0  0  0  0  0  0
   16.4911  -12.8528    5.1230 H   0  0  0  0  0  0  0  0  0  0  0  0
   17.2856  -15.0736    8.2796 H   0  0  0  0  0  0  0  0  0  0  0  0
   18.2608  -13.7117    7.5524 H   0  0  0  0  0  0  0  0  0  0  0  0
   17.4898  -14.8251    6.4957 H   0  0  0  0  0  0  0  0  0  0  0  0
   14.6801  -11.6139    2.7872 N   0  0  0  0  0  0  0  0  0  0  0  0
   14.6730  -12.4967    1.6236 C   0  0  0  0  0  0  0  0  0  0  0  0
   15.4456  -11.9009    0.4707 C   0  0  0  0  0  0  0  0  0  0  0  0
   16.1622  -12.5670   -0.2487 O   0  0  0  0  0  0  0  0  0  0  0  0
   13.2210  -12.7221    1.1552 C   0  0  0  0  0  0  0  0  0  0  0  0
   13.2183  -13.6479   -0.0644 C   0  0  0  0  0  0  0  0  0  0  0  0
   11.7640  -13.8766   -0.5402 C   0  0  0  0  0  0  0  0  0  0  0  0
   11.7605  -14.8057   -1.7642 C   0  0  0  0  0  0  0  0  0  0  0  0
   10.3484  -15.0261   -2.2222 N   0  3  0  0  0  0  0  0  0  0  0  0
   13.8066  -11.2530    3.1763 H   0  0  0  0  0  0  0  0  0  0  0  0
   15.1473  -13.4625    1.8899 H   0  0  0  0  0  0  0  0  0  0  0  0
   12.7726  -11.7455    0.8810 H   0  0  0  0  0  0  0  0  0  0  0  0
   12.6367  -13.1882    1.9752 H   0  0  0  0  0  0  0  0  0  0  0  0
   13.6716  -14.6275    0.2044 H   0  0  0  0  0  0  0  0  0  0  0  0
   13.8002  -13.1851   -0.8918 H   0  0  0  0  0  0  0  0  0  0  0  0
   11.3162  -12.9013   -0.8085 H   0  0  0  0  0  0  0  0  0  0  0  0
   11.1870  -14.3424    0.2819 H   0  0  0  0  0  0  0  0  0  0  0  0
   12.2016  -15.7876   -1.4882 H   0  0  0  0  0  0  0  0  0  0  0  0
   12.3358  -14.3341   -2.5905 H   0  0  0  0  0  0  0  0  0  0  0  0
   10.3439  -15.6424   -3.0349 H   0  0  0  0  0  0  0  0  0  0  0  0
    9.9256  -14.1314   -2.4733 H   0  0  0  0  0  0  0  0  0  0  0  0
    9.8066  -15.4537   -1.4663 H   0  0  0  0  0  0  0  0  0  0  0  0
   15.2410  -10.5837    0.3378 N   0  0  0  0  0  0  0  0  0  0  0  0
   15.8987   -9.8240   -0.7214 C   0  0  0  0  0  0  0  0  0  0  0  0
   17.4025   -9.9004   -0.6084 C   0  0  0  0  0  0  0  0  0  0  0  0
   18.0390  -10.0201   -1.6741 O   0  5  0  0  0  0  0  0  0  0  0  0
   15.4946   -8.3418   -0.6189 C   0  0  0  0  0  0  0  0  0  0  0  0
   16.1901   -7.5400   -1.7354 C   0  0  0  0  0  0  0  0  0  0  0  0
   15.7859   -6.0581   -1.6319 C   0  0  0  0  0  0  0  0  0  0  0  0
   16.4307   -5.3048   -2.6857 N   0  0  0  0  0  0  0  0  0  0  0  0
   16.2302   -3.9747   -2.7902 C   0  0  0  0  0  0  0  0  0  0  0  0
   16.8348   -3.2721   -3.7703 N   0  0  0  0  0  0  0  0  0  0  0  0
   15.4038   -3.3558   -1.9169 N   0  0  0  0  0  0  0  0  0  0  0  0
   17.8921   -9.8408    0.5420 O   0  5  0  0  0  0  0  0  0  0  0  0
   14.6097  -10.1281    0.9974 H   0  0  0  0  0  0  0  0  0  0  0  0
   15.6095  -10.2386   -1.7097 H   0  0  0  0  0  0  0  0  0  0  0  0
   15.8032   -7.9423    0.3686 H   0  0  0  0  0  0  0  0  0  0  0  0
   14.3956   -8.2515   -0.7290 H   0  0  0  0  0  0  0  0  0  0  0  0
   15.8704   -7.9449   -2.7213 H   0  0  0  0  0  0  0  0  0  0  0  0
   17.2892   -7.6303   -1.6253 H   0  0  0  0  0  0  0  0  0  0  0  0
   16.0925   -5.6606   -0.6439 H   0  0  0  0  0  0  0  0  0  0  0  0
   14.6758   -5.9698   -1.7441 H   0  0  0  0  0  0  0  0  0  0  0  0
   17.0549   -5.7769   -3.3444 H   0  0  0  0  0  0  0  0  0  0  0  0
   16.6769   -2.2678   -3.8511 H   0  0  0  0  0  0  0  0  0  0  0  0
   17.4495   -3.7467   -4.4309 H   0  0  0  0  0  0  0  0  0  0  0  0
   15.2541   -2.3425   -1.9983 H   0  0  0  0  0  0  0  0  0  0  0  0
   14.9514   -3.8792   -1.1770 H   0  0  0  0  0  0  0  0  0  0  0  0
  2  1  1  0  0  0  0
  3  2  1  0  0  0  0
  4  3  2  0  0  0  0
  5  2  1  0  0  0  0
  6  1  1  0  0  0  0
  7  1  1  0  0  0  0
  8  1  1  0  0  0  0
  9  2  1  0  0  0  0
 10  5  1  0  0  0  0
 11  5  1  0  0  0  0
 12  5  1  0  0  0  0
 13  3  1  0  0  0  0
 14 13  1  0  0  0  0
 15 14  1  0  0  0  0
 16 15  2  0  0  0  0
 17 13  1  0  0  0  0
 18 14  1  0  0  0  0
 19 14  1  0  0  0  0
 20 15  1  0  0  0  0
 21 20  1  0  0  0  0
 22 21  1  0  0  0  0
 23 22  2  0  0  0  0
 24 21  1  0  0  0  0
 25 24  1  0  0  0  0
 26 24  1  0  0  0  0
 27 20  1  0  0  0  0
 28 21  1  0  0  0  0
 29 24  1  0  0  0  0
 30 25  1  0  0  0  0
 31 25  1  0  0  0  0
 32 25  1  0  0  0  0
 33 26  1  0  0  0  0
 34 26  1  0  0  0  0
 35 26  1  0  0  0  0
 36 22  1  0  0  0  0
 37 36  1  0  0  0  0
 38 37  1  0  0  0  0
 39 38  2  0  0  0  0
 40 37  1  0  0  0  0
 41 40  1  0  0  0  0
 42 41  1  0  0  0  0
 43 41  1  0  0  0  0
 44 36  1  0  0  0  0
 45 37  1  0  0  0  0
 46 40  1  0  0  0  0
 47 40  1  0  0  0  0
 48 41  1  0  0  0  0
 49 42  1  0  0  0  0
 50 42  1  0  0  0  0
 51 42  1  0  0  0  0
 52 43  1  0  0  0  0
 53 43  1  0  0  0  0
 54 43  1  0  0  0  0
 55 38  1  0  0  0  0
 56 55  1  0  0  0  0
 57 56  1  0  0  0  0
 58 57  2  0  0  0  0
 59 56  1  0  0  0  0
 60 59  1  0  0  0  0
 61 59  1  0  0  0  0
 62 60  1  0  0  0  0
 63 55  1  0  0  0  0
 64 56  1  0  0  0  0
 65 59  1  0  0  0  0
 66 60  1  0  0  0  0
 67 60  1  0  0  0  0
 68 61  1  0  0  0  0
 69 61  1  0  0  0  0
 70 61  1  0  0  0  0
 71 62  1  0  0  0  0
 72 62  1  0  0  0  0
 73 62  1  0  0  0  0
 74 57  1  0  0  0  0
 75 74  1  0  0  0  0
 76 75  1  0  0  0  0
 77 76  2  0  0  0  0
 78 75  1  0  0  0  0
 79 78  1  0  0  0  0
 80 79  1  0  0  0  0
 80 74  1  0  0  0  0
 81 75  1  0  0  0  0
 82 78  1  0  0  0  0
 83 78  1  0  0  0  0
 84 79  1  0  0  0  0
 85 79  1  0  0  0  0
 86 80  1  0  0  0  0
 87 80  1  0  0  0  0
 88 76  1  0  0  0  0
 89 88  1  0  0  0  0
 90 89  1  0  0  0  0
 91 90  2  0  0  0  0
 92 89  1  0  0  0  0
 93 92  1  0  0  0  0
 94 88  1  0  0  0  0
 95 89  1  0  0  0  0
 96 92  1  0  0  0  0
 97 92  1  0  0  0  0
 98 93  1  0  0  0  0
 99 90  1  0  0  0  0
100 99  1  0  0  0  0
101100  1  0  0  0  0
102101  2  0  0  0  0
103100  1  0  0  0  0
104103  1  0  0  0  0
105103  1  0  0  0  0
106 99  1  0  0  0  0
107100  1  0  0  0  0
108103  1  0  0  0  0
109104  1  0  0  0  0
110105  1  0  0  0  0
111105  1  0  0  0  0
112105  1  0  0  0  0
113101  1  0  0  0  0
114113  1  0  0  0  0
115114  1  0  0  0  0
116115  2  0  0  0  0
117114  1  0  0  0  0
118117  1  0  0  0  0
119113  1  0  0  0  0
120114  1  0  0  0  0
121117  1  0  0  0  0
122117  1  0  0  0  0
123118  1  0  0  0  0
124115  1  0  0  0  0
125124  1  0  0  0  0
126125  1  0  0  0  0
127126  2  0  0  0  0
128125  1  0  0  0  0
129128  1  0  0  0  0
130129  4  0  0  0  0
131129  4  0  0  0  0
132130  4  0  0  0  0
133131  4  0  0  0  0
134132  4  0  0  0  0
134133  4  0  0  0  0
135124  1  0  0  0  0
136125  1  0  0  0  0
137128  1  0  0  0  0
138128  1  0  0  0  0
139130  1  0  0  0  0
140131  1  0  0  0  0
141132  1  0  0  0  0
142133  1  0  0  0  0
143134  1  0  0  0  0
144126  1  0  0  0  0
145144  1  0  0  0  0
146145  1  0  0  0  0
147146  2  0  0  0  0
148145  1  0  0  0  0
149148  1  0  0  0  0
150149  4  0  0  0  0
151149  4  0  0  0  0
152150  4  0  0  0  0
153151  4  0  0  0  0
154152  4  0  0  0  0
154153  4  0  0  0  0
155154  1  0  0  0  0
156144  1  0  0  0  0
157145  1  0  0  0  0
158148  1  0  0  0  0
159148  1  0  0  0  0
160150  1  0  0  0  0
161151  1  0  0  0  0
162152  1  0  0  0  0
163153  1  0  0  0  0
164155  1  0  0  0  0
165146  1  0  0  0  0
166165  1  0  0  0  0
167166  1  0  0  0  0
168167  2  0  0  0  0
169166  1  0  0  0  0
170169  1  0  0  0  0
171170  1  0  0  0  0
172170  2  0  0  0  0
173171  1  0  0  0  0
174172  1  0  0  0  0
174173  2  0  0  0  0
175165  1  0  0  0  0
176166  1  0  0  0  0
177169  1  0  0  0  0
178169  1  0  0  0  0
179171  1  0  0  0  0
180172  1  0  0  0  0
181173  1  0  0  0  0
182174  1  0  0  0  0
183167  1  0  0  0  0
184183  1  0  0  0  0
185184  1  0  0  0  0
186185  2  0  0  0  0
187184  1  0  0  0  0
188187  1  0  0  0  0
189188  2  0  0  0  0
190188  1  0  0  0  0
191189  1  0  0  0  0
192190  1  0  0  0  0
192191  1  0  0  0  0
193190  2  0  0  0  0
194192  2  0  0  0  0
195193  1  0  0  0  0
196194  1  0  0  0  0
196195  2  0  0  0  0
197183  1  0  0  0  0
198184  1  0  0  0  0
199187  1  0  0  0  0
200187  1  0  0  0  0
201189  1  0  0  0  0
202191  1  0  0  0  0
203193  1  0  0  0  0
204194  1  0  0  0  0
205195  1  0  0  0  0
206196  1  0  0  0  0
207185  1  0  0  0  0
208207  1  0  0  0  0
209208  1  0  0  0  0
210209  2  0  0  0  0
211208  1  0  0  0  0
212211  1  0  0  0  0
213212  1  0  0  0  0
214212  2  0  0  0  0
215207  1  0  0  0  0
216208  1  0  0  0  0
217211  1  0  0  0  0
218211  1  0  0  0  0
219209  1  0  0  0  0
220219  1  0  0  0  0
221220  1  0  0  0  0
222221  2  0  0  0  0
223220  1  0  0  0  0
224223  1  0  0  0  0
225224  2  0  0  0  0
226224  1  0  0  0  0
227219  1  0  0  0  0
228220  1  0  0  0  0
229223  1  0  0  0  0
230223  1  0  0  0  0
231226  1  0  0  0  0
232226  1  0  0  0  0
233221  1  0  0  0  0
234233  1  0  0  0  0
235234  1  0  0  0  0
236235  2  0  0  0  0
237234  1  0  0  0  0
238237  1  0  0  0  0
239238  1  0  0  0  0
240239  2  0  0  0  0
241239  1  0  0  0  0
242233  1  0  0  0  0
243234  1  0  0  0  0
244237  1  0  0  0  0
245237  1  0  0  0  0
246238  1  0  0  0  0
247238  1  0  0  0  0
248235  1  0  0  0  0
249248  1  0  0  0  0
250249  1  0  0  0  0
251250  2  0  0  0  0
252249  1  0  0  0  0
253252  1  0  0  0  0
254253  1  0  0  0  0
255254  2  0  0  0  0
256254  1  0  0  0  0
257248  1  0  0  0  0
258249  1  0  0  0  0
259252  1  0  0  0  0
260252  1  0  0  0  0
261253  1  0  0  0  0
262253  1  0  0  0  0
263256  1  0  0  0  0
264256  1  0  0  0  0
265250  1  0  0  0  0
266265  1  0  0  0  0
267266  1  0  0  0  0
268267  2  0  0  0  0
269266  1  0  0  0  0
270269  1  0  0  0  0
271270  1  0  0  0  0
272271  1  0  0  0  0
273265  1  0  0  0  0
274266  1  0  0  0  0
275269  1  0  0  0  0
276269  1  0  0  0  0
277270  1  0  0  0  0
278270  1  0  0  0  0
279272  1  0  0  0  0
280272  1  0  0  0  0
281272  1  0  0  0  0
282267  1  0  0  0  0
283282  1  0  0  0  0
284283  1  0  0  0  0
285284  2  0  0  0  0
286283  1  0  0  0  0
287286  1  0  0  0  0
288287  1  0  0  0  0
289288  1  0  0  0  0
290289  1  0  0  0  0
291282  1  0  0  0  0
292283  1  0  0  0  0
293286  1  0  0  0  0
294286  1  0  0  0  0
295287  1  0  0  0  0
296287  1  0  0  0  0
297288  1  0  0  0  0
298288  1  0  0  0  0
299289  1  0  0  0  0
300289  1  0  0  0  0
301290  1  0  0  0  0
302290  1  0  0  0  0
303290  1  0  0  0  0
304284  1  0  0  0  0
305304  1  0  0  0  0
306305  1  0  0  0  0
307306  2  0  0  0  0
308305  1  0  0  0  0
309308  1  0  0  0  0
310309  1  0  0  0  0
311310  1  0  0  0  0
312311  1  0  0  0  0
313312  4  0  0  0  0
314312  4  0  0  0  0
315306  1  0  0  0  0
316304  1  0  0  0  0
317305  1  0  0  0  0
318308  1  0  0  0  0
319308  1  0  0  0  0
320309  1  0  0  0  0
321309  1  0  0  0  0
322310  1  0  0  0  0
323310  1  0  0  0  0
324311  1  0  0  0  0
325313  1  0  0  0  0
326313  1  0  0  0  0
327314  1  0  0  0  0
328314  1  0  0  0  0
M  END
